test/data/dist/ieee123/ieee123_pv_Curr_Elem.Txt

CIRCUIT ELEMENT CURRENTS

(Currents into element from indicated bus)

Power Delivery Elements

  Bus     Phase    Magnitude, A     Angle      (Real)   +j  (Imag)

ELEMENT = "Vsource.SOURCE"
SOURCEBUS     1           128.88 /_  105.8 =    -35.045 +j    124.02
SOURCEBUS     2           83.016 /_  -62.0 =     38.938 +j   -73.318
SOURCEBUS     3           50.851 /_  -94.4 =    -3.8928 +j   -50.701
------------
SOURCEBUS     0           128.88 /_  -74.2 =     35.045 +j   -124.02
SOURCEBUS     0           83.016 /_  118.0 =    -38.938 +j    73.318
SOURCEBUS     0           50.851 /_   85.6 =     3.8928 +j    50.701

ELEMENT = "Transformer.SUB"
SOURCEBUS     1           128.88 /_  -74.2 =     35.045 +j   -124.02
SOURCEBUS     2           83.016 /_  118.0 =    -38.938 +j    73.318
SOURCEBUS     3           50.851 /_   85.6 =     3.8928 +j    50.701
SOURCEBUS     0                0 /_    0.0 =          0 +j         0
------------
150           1           2879.3 /_   87.5 =     123.88 +j    2876.7
150           2           3137.9 /_  -57.5 =     1684.8 +j   -2647.2
150           3           620.36 /_   94.6 =     -49.51 +j    618.38
150           0           1952.8 /_ -154.3 =    -1759.2 +j   -847.79

ELEMENT = "Line.L115"
150           1           2879.3 /_  -92.5 =    -123.88 +j   -2876.7
150           2           3137.9 /_  122.5 =    -1684.8 +j    2647.2
150           3           620.36 /_  -85.4 =      49.51 +j   -618.38
------------
1             1           2879.3 /_   87.5 =     123.88 +j    2876.7
1             2           3137.9 /_  -57.5 =     1684.8 +j   -2647.2
1             3           620.36 /_   94.6 =    -49.511 +j    618.38

ELEMENT = "Line.L1"
1             2       0.00020822 /_  -55.4 =  0.00011827 +j -0.00017137
------------
2             2       5.457E-012 /_   90.0 =          0 +j 5.457E-012

ELEMENT = "Line.L2"
1             3          0.00235 /_ -175.0 =  -0.0023412 +j -0.00020385
------------
3             3        0.0017769 /_    5.0 =  0.0017702 +j 0.00015413

ELEMENT = "Line.L3"
1             1           2879.3 /_  -92.5 =    -123.88 +j   -2876.7
1             2           3137.9 /_  122.5 =    -1684.8 +j    2647.2
1             3           620.36 /_  -85.4 =     49.513 +j   -618.38
------------
7             1           2879.3 /_   87.5 =     123.88 +j    2876.7
7             2           3137.9 /_  -57.5 =     1684.8 +j   -2647.2
7             3           620.36 /_   94.6 =    -49.514 +j    618.38

ELEMENT = "Line.L4"
3             3       0.00045854 /_ -175.0 =  -0.00045682 +j -3.9776E-005
------------
4             3      5.1449E-012 /_  135.0 =  -3.638E-012 +j 3.638E-012

ELEMENT = "Line.L5"
3             3        0.0013183 /_ -175.0 =  -0.0013133 +j -0.00011436
------------
5             3       0.00057318 /_    5.0 =  0.00057102 +j 4.972E-005

ELEMENT = "Line.L6"
5             3       0.00057318 /_ -175.0 =  -0.00057102 +j -4.972E-005
------------
6             3       3.638E-012 /_  -90.0 =          0 +j -3.638E-012

ELEMENT = "Line.L7"
7             1           2879.3 /_  -92.5 =    -123.88 +j   -2876.7
7             2           3137.9 /_  122.5 =    -1684.8 +j    2647.2
7             3           620.36 /_  -85.4 =     49.514 +j   -618.38
------------
8             1           2879.3 /_   87.5 =     123.88 +j    2876.7
8             2           3137.9 /_  -57.5 =     1684.8 +j   -2647.2
8             3           620.36 /_   94.6 =    -49.515 +j    618.38

ELEMENT = "Line.L8"
8             2       0.00022812 /_  -54.7 =  0.00013167 +j -0.00018628
------------
12            2       1.819E-012 /_    0.0 =  1.819E-012 +j         0

ELEMENT = "Line.L9"
8             1         0.001258 /_   52.4 =  0.00076757 +j 0.00099666
------------
9             1        0.0010118 /_ -127.6 =  -0.0006174 +j -0.00080166

ELEMENT = "Line.L10"
8             1           2921.5 /_  -90.8 =     -39.01 +j   -2921.2
8             2           3139.7 /_  124.2 =    -1765.9 +j      2596
8             3           524.58 /_  -85.0 =     45.692 +j   -522.59
------------
13            1           2921.5 /_   89.2 =      39.01 +j    2921.2
13            2           3139.7 /_  -55.8 =     1765.9 +j     -2596
13            3           524.58 /_   95.0 =    -45.693 +j    522.59

ELEMENT = "Line.L11"
9             1        0.0010118 /_   52.4 =  0.0006174 +j 0.00080166
------------
14            1       0.00054694 /_ -127.6 =  -0.00033373 +j -0.00043333

ELEMENT = "Line.L12"
13            3        0.0023666 /_ -174.2 =  -0.0023545 +j -0.00023916
------------
34            3        0.0020025 /_    5.8 =  0.0019923 +j 0.00020236

ELEMENT = "Line.L13"
13            1           427.43 /_  155.1 =    -387.69 +j    179.99
13            2           427.44 /_   35.1 =     349.73 +j    245.76
13            3           427.44 /_  -84.9 =     37.954 +j   -425.75
------------
18            1           427.43 /_  -24.9 =     387.69 +j   -179.99
18            2           427.44 /_ -144.9 =    -349.72 +j   -245.76
18            3           427.44 /_   95.1 =    -37.957 +j    425.75

ELEMENT = "Line.L14"
14            1       0.00027347 /_   52.4 =  0.00016686 +j 0.00021666
------------
11            1       1.819E-012 /_  180.0 =  -1.819E-012 +j         0

ELEMENT = "Line.L15"
14            1       0.00027347 /_   52.4 =  0.00016686 +j 0.00021666
------------
10            1       1.819E-012 /_  180.0 =  -1.819E-012 +j         0

ELEMENT = "Line.L16"
15            3       0.00091023 /_ -174.2 =  -0.00090557 +j -9.1983E-005
------------
16            3       1.819E-012 /_  180.0 =  -1.819E-012 +j         0

ELEMENT = "Line.L17"
15            3       0.00084955 /_ -174.2 =  -0.0008452 +j -8.5851E-005
------------
17            3       1.819E-012 /_  180.0 =  -1.819E-012 +j         0

ELEMENT = "Line.L18"
18            1       0.00056167 /_   55.8 =  0.00031597 +j 0.00046437
------------
19            1       0.00031747 /_ -124.2 =  -0.00017859 +j -0.00026247

ELEMENT = "Line.L19"
18            1           97.146 /_  154.9 =    -87.958 +j    41.241
18            2           97.149 /_   34.9 =     79.695 +j    55.556
18            3           97.149 /_  -85.1 =     8.2579 +j   -96.798
------------
21            1           97.147 /_  -25.1 =     87.958 +j    -41.24
21            2           97.149 /_ -145.1 =    -79.695 +j   -55.557
21            3           97.149 /_   94.9 =    -8.2589 +j    96.797

ELEMENT = "Line.L20"
19            1       0.00031747 /_   55.8 =  0.00017859 +j 0.00026247
------------
20            1                0 /_    0.0 =          0 +j         0

ELEMENT = "Line.L21"
21            2       0.00048571 /_  -51.9 =  0.0002999 +j -0.00038207
------------
22            2      4.5475E-013 /_  -90.0 =          0 +j -4.5475E-013

ELEMENT = "Line.L22"
21            1           97.147 /_  154.9 =    -87.958 +j     41.24
21            2           97.149 /_   34.9 =     79.695 +j    55.557
21            3           97.149 /_  -85.1 =     8.2589 +j   -96.797
------------
23            1           97.147 /_  -25.1 =     87.959 +j    -41.24
23            2           97.149 /_ -145.1 =    -79.695 +j   -55.557
23            3           97.149 /_   94.9 =    -8.2598 +j    96.797

ELEMENT = "Line.L23"
23            3        0.0013501 /_ -173.2 =  -0.0013407 +j -0.00015901
------------
24            3      2.5724E-012 /_ -135.0 =  -1.819E-012 +j -1.819E-012

ELEMENT = "Line.L24"
23            1           97.147 /_  154.9 =    -87.959 +j     41.24
23            2           97.149 /_   34.9 =     79.695 +j    55.557
23            3           97.149 /_  -85.1 =     8.2611 +j   -96.797
------------
25            1           97.147 /_  -25.1 =     87.959 +j    -41.24
25            2           97.149 /_ -145.1 =    -79.694 +j   -55.558
25            3           97.149 /_   94.9 =     -8.262 +j    96.797

ELEMENT = "Line.L25"
25            1        0.0014409 /_   45.3 =  0.0010127 +j  0.001025
25            3        0.0031411 /_ -171.2 =  -0.0031041 +j -0.00048078
------------
26            1        0.0009046 /_ -131.4 =  -0.0005979 +j -0.00067884
26            3         0.002104 /_    8.1 =  0.0020829 +j 0.00029739

ELEMENT = "Line.L26"
25            1           97.147 /_  154.9 =     -87.96 +j    41.238
25            2           97.149 /_   34.9 =     79.694 +j    55.558
25            3           97.149 /_  -85.1 =     8.2651 +j   -96.796
------------
28            1           97.148 /_  -25.1 =     87.961 +j   -41.238
28            2           97.148 /_ -145.1 =    -79.694 +j   -55.558
28            3           97.149 /_   94.9 =    -8.2658 +j    96.796

ELEMENT = "Line.L27"
26            1        0.0009046 /_   48.6 =  0.0005979 +j 0.00067884
26            3       0.00081517 /_ -169.8 =  -0.00080234 +j -0.00014409
------------
27            1       0.00048938 /_ -123.8 =  -0.00027199 +j -0.00040683
27            3                0 /_    0.0 =          0 +j         0

ELEMENT = "Line.L28"
26            3        0.0012897 /_ -173.2 =  -0.0012806 +j -0.00015329
------------
31            3       0.00073698 /_    6.8 =  0.00073176 +j 8.7597E-005

ELEMENT = "Line.L29"
27            1       0.00048938 /_   56.2 =  0.00027199 +j 0.00040683
------------
33            1                0 /_    0.0 =          0 +j         0

ELEMENT = "Line.L30"
28            1         0.001772 /_   41.6 =  0.0013244 +j 0.0011773
28            2          0.00118 /_  -48.0 =  0.0007896 +j -0.00087683
28            3        0.0029116 /_ -170.1 =  -0.0028684 +j -0.0004995
------------
29            1        0.0011466 /_ -138.4 =  -0.00085693 +j -0.00076176
29            2        0.0007635 /_  132.0 =  -0.00051092 +j 0.00056736
29            3         0.001884 /_    9.9 =   0.001856 +j 0.0003232

ELEMENT = "Line.L31"
29            1        0.0011466 /_   41.6 =  0.00085693 +j 0.00076176
29            2        0.0007635 /_  -48.0 =  0.00051092 +j -0.00056736
29            3         0.001884 /_ -170.1 =  -0.001856 +j -0.0003232
------------
30            1       0.00041693 /_ -138.4 =  -0.00031161 +j -0.000277
30            2       0.00027764 /_  132.0 =  -0.00018579 +j 0.00020631
30            3       0.00068508 /_    9.9 =  0.00067492 +j 0.00011753

ELEMENT = "Line.L32"
30            1       0.00041693 /_   41.6 =  0.00031161 +j  0.000277
30            2       0.00027764 /_  -48.0 =  0.00018579 +j -0.00020631
30            3       0.00068508 /_ -170.1 =  -0.00067492 +j -0.00011753
------------
250           1       7.276E-012 /_   90.0 =          0 +j 7.276E-012
250           2      9.0949E-012 /_    0.0 =  9.0949E-012 +j         0
250           3       7.276E-012 /_   90.0 =          0 +j 7.276E-012

ELEMENT = "Line.L33"
31            3       0.00073698 /_ -173.2 =  -0.00073176 +j -8.7597E-005
------------
32            3       3.638E-012 /_    0.0 =  3.638E-012 +j         0

ELEMENT = "Line.L34"
34            3        0.0020025 /_ -174.2 =  -0.0019923 +j -0.00020236
------------
15            3        0.0017598 /_    5.8 =  0.0017508 +j 0.00017783

ELEMENT = "Line.L35"
35            1        0.0010662 /_   63.5 =  0.00047613 +j 0.00095402
35            2        0.0012778 /_  -58.0 =  0.00067721 +j -0.0010836
------------
36            1       0.00029384 /_ -123.7 =  -0.00016323 +j -0.00024433
36            2       0.00053387 /_  128.4 =  -0.0003313 +j 0.00041864

ELEMENT = "Line.L36"
35            1            194.3 /_  155.6 =    -176.99 +j    80.156
35            2            194.3 /_   35.6 =     157.92 +j     113.2
35            3            194.3 /_  -84.4 =     19.073 +j   -193.36
------------
40            1            194.3 /_  -24.4 =     176.99 +j   -80.156
40            2            194.3 /_ -144.4 =    -157.92 +j    -113.2
40            3            194.3 /_   95.6 =    -19.074 +j    193.36

ELEMENT = "Line.L37"
36            1       0.00029384 /_   56.3 =  0.00016323 +j 0.00024433
------------
37            1                0 /_    0.0 =          0 +j         0

ELEMENT = "Line.L38"
36            2       0.00053387 /_  -51.6 =  0.0003313 +j -0.00041864
------------
38            2       0.00030175 /_  128.4 =  -0.00018725 +j 0.00023662

ELEMENT = "Line.L39"
38            2       0.00030175 /_  -51.6 =  0.00018725 +j -0.00023662
------------
39            2      9.0949E-013 /_  -90.0 =          0 +j -9.0949E-013

ELEMENT = "Line.L40"
40            3       0.00079816 /_ -173.1 =  -0.00079232 +j -9.636E-005
------------
41            3      9.0949E-012 /_ -126.9 =  -5.457E-012 +j -7.276E-012

ELEMENT = "Line.L41"
40            1            194.3 /_  155.6 =    -176.99 +j    80.156
40            2            194.3 /_   35.6 =     157.92 +j     113.2
40            3            194.3 /_  -84.4 =     19.075 +j   -193.36
------------
42            1            194.3 /_  -24.4 =     176.99 +j   -80.156
42            2            194.3 /_ -144.4 =    -157.92 +j    -113.2
42            3            194.3 /_   95.6 =    -19.075 +j    193.36

ELEMENT = "Line.L42"
42            2       0.00046638 /_  -51.1 =  0.00029293 +j -0.00036291
------------
43            2      9.0949E-013 /_  -90.0 =          0 +j -9.0949E-013

ELEMENT = "Line.L43"
42            1            194.3 /_  155.6 =    -176.99 +j    80.156
42            2            194.3 /_   35.6 =     157.91 +j     113.2
42            3            194.3 /_  -84.4 =     19.075 +j   -193.36
------------
44            1            194.3 /_  -24.4 =     176.99 +j   -80.156
44            2            194.3 /_ -144.4 =    -157.91 +j    -113.2
44            3            194.3 /_   95.6 =    -19.076 +j    193.36

ELEMENT = "Line.L44"
44            1       0.00049305 /_   57.1 =  0.00026754 +j 0.00041416
------------
45            1       0.00029583 /_ -122.9 =  -0.00016052 +j -0.00024849

ELEMENT = "Line.L45"
44            1            194.3 /_  155.6 =    -176.99 +j    80.155
44            2            194.3 /_   35.6 =     157.91 +j     113.2
44            3            194.3 /_  -84.4 =     19.076 +j   -193.36
------------
47            1            194.3 /_  -24.4 =     176.99 +j   -80.155
47            2            194.3 /_ -144.4 =    -157.91 +j    -113.2
47            3            194.3 /_   95.6 =    -19.077 +j    193.36

ELEMENT = "Line.L46"
45            1       0.00029583 /_   57.1 =  0.00016052 +j 0.00024849
------------
46            1                0 /_    0.0 =          0 +j         0

ELEMENT = "Line.L47"
47            1            194.3 /_  155.6 =    -176.99 +j    80.154
47            2            194.3 /_   35.6 =     157.91 +j     113.2
47            3            194.3 /_  -84.4 =     19.081 +j   -193.36
------------
48            1            194.3 /_  -24.4 =     176.99 +j   -80.154
48            2            194.3 /_ -144.4 =    -157.91 +j    -113.2
48            3            194.3 /_   95.6 =    -19.082 +j    193.36

ELEMENT = "Line.L48"
47            1        0.0018084 /_   36.3 =  0.0014571 +j  0.001071
47            2        0.0025136 /_  -17.9 =  0.0023925 +j -0.00077102
47            3        0.0042483 /_ -176.2 =  -0.0042388 +j -0.00028353
------------
49            1        0.0014467 /_ -143.7 =  -0.0011657 +j -0.00085677
49            2        0.0020109 /_  162.1 =  -0.001914 +j 0.00061681
49            3        0.0033986 /_    3.8 =   0.003391 +j 0.00022682

ELEMENT = "Line.L49"
49            1        0.0014467 /_   36.3 =  0.0011657 +j 0.00085677
49            2        0.0020109 /_  -17.9 =   0.001914 +j -0.00061681
49            3        0.0033986 /_ -176.2 =  -0.003391 +j -0.00022682
------------
50            1         0.001085 /_ -143.7 =  -0.00087428 +j -0.00064257
50            2        0.0015082 /_  162.1 =  -0.0014355 +j 0.00046261
50            3         0.002549 /_    3.8 =  0.0025433 +j 0.00017012

ELEMENT = "Line.L50"
50            1         0.001085 /_   36.3 =  0.00087428 +j 0.00064257
50            2        0.0015082 /_  -17.9 =  0.0014355 +j -0.00046261
50            3         0.002549 /_ -176.2 =  -0.0025433 +j -0.00017012
------------
51            1       0.00072335 /_ -143.7 =  -0.00058285 +j -0.00042838
51            2        0.0010055 /_  162.1 =  -0.00095698 +j 0.00030841
51            3        0.0016993 /_    3.8 =  0.0016955 +j 0.00011341

ELEMENT = "Line.L51"
51            1       0.00072335 /_   36.3 =  0.00058285 +j 0.00042838
51            2        0.0010055 /_  -17.9 =  0.00095698 +j -0.00030841
51            3        0.0016993 /_ -176.2 =  -0.0016955 +j -0.00011341
------------
151           1      2.5724E-012 /_  135.0 =  -1.819E-012 +j 1.819E-012
151           2      2.5724E-012 /_  135.0 =  -1.819E-012 +j 1.819E-012
151           3       3.638E-012 /_   90.0 =          0 +j 3.638E-012

ELEMENT = "Line.L52"
52            1           3120.8 /_  -83.6 =     348.67 +j   -3101.2
52            2           3162.2 /_  132.0 =    -2115.6 +j    2350.3
52            3           97.149 /_  -85.4 =      7.742 +j    -96.84
------------
53            1           3120.8 /_   96.4 =    -348.67 +j    3101.2
53            2           3162.2 /_  -48.0 =     2115.6 +j   -2350.3
53            3           97.149 /_   94.6 =    -7.7426 +j     96.84

ELEMENT = "Line.L53"
53            1           3120.8 /_  -83.6 =     348.67 +j   -3101.2
53            2           3162.2 /_  132.0 =    -2115.6 +j    2350.3
53            3           97.149 /_  -85.4 =     7.7426 +j    -96.84
------------
54            1           3120.8 /_   96.4 =    -348.67 +j    3101.2
54            2           3162.2 /_  -48.0 =     2115.6 +j   -2350.3
54            3           97.149 /_   94.6 =     -7.743 +j     96.84

ELEMENT = "Line.L54"
54            1       0.00064363 /_   52.8 =  0.00038874 +j 0.00051297
54            2       0.00071213 /_  -41.2 =  0.00053607 +j -0.00046878
54            3        0.0017432 /_ -175.6 =  -0.001738 +j -0.00013446
------------
55            1       0.00032181 /_ -127.2 =  -0.00019437 +j -0.00025649
55            2       0.00035606 /_  138.8 =  -0.00026803 +j 0.00023439
55            3       0.00087158 /_    4.4 =  0.00086898 +j 6.7228E-005

ELEMENT = "Line.L55"
54            1           3120.8 /_  -83.6 =     348.67 +j   -3101.2
54            2           3162.2 /_  132.0 =    -2115.6 +j    2350.3
54            3           97.149 /_  -85.4 =     7.7448 +j    -96.84
------------
57            1           3120.8 /_   96.4 =    -348.67 +j    3101.2
57            2           3162.2 /_  -48.0 =     2115.6 +j   -2350.3
57            3           97.149 /_   94.6 =     -7.746 +j     96.84

ELEMENT = "Line.L56"
55            1       0.00032181 /_   52.8 =  0.00019437 +j 0.00025649
55            2       0.00035606 /_  -41.2 =  0.00026803 +j -0.00023439
55            3       0.00087158 /_ -175.6 =  -0.00086898 +j -6.7228E-005
------------
56            1      2.5724E-012 /_  135.0 =  -1.819E-012 +j 1.819E-012
56            2                0 /_    0.0 =          0 +j         0
56            3       7.276E-012 /_  180.0 =  -7.276E-012 +j         0

ELEMENT = "Line.L57"
57            2        0.0002418 /_  -56.1 =  0.00013502 +j -0.00020059
------------
58            2        0.0001209 /_  123.9 =  -6.751E-005 +j 0.0001003

ELEMENT = "Line.L58"
57            1           3120.8 /_  -83.6 =     348.67 +j   -3101.2
57            2           3162.2 /_  132.0 =    -2115.6 +j    2350.3
57            3           97.149 /_  -85.4 =      7.746 +j    -96.84
------------
60            1           3120.8 /_   96.4 =    -348.67 +j    3101.2
60            2           3162.2 /_  -48.0 =     2115.6 +j   -2350.3
60            3           97.149 /_   94.6 =    -7.7487 +j     96.84

ELEMENT = "Line.L59"
58            2        0.0001209 /_  -56.1 =  6.751E-005 +j -0.0001003
------------
59            2                0 /_    0.0 =          0 +j         0

ELEMENT = "Line.L60"
60            1           97.148 /_  154.6 =    -87.784 +j    41.613
60            2           97.149 /_   34.6 =      79.93 +j    55.218
60            3           97.148 /_  -85.4 =     7.8531 +j    -96.83
------------
61            1           97.148 /_  -25.4 =     87.785 +j   -41.613
61            2           97.148 /_ -145.4 =     -79.93 +j   -55.218
61            3           97.148 /_   94.6 =    -7.8549 +j     96.83

ELEMENT = "Line.L61"
60            1        0.0037837 /_   54.7 =  0.0021847 +j 0.0030892
60            2        0.0035305 /_  -58.8 =  0.0018283 +j -0.0030201
60            3         0.061776 /_ -174.9 =  -0.061532 +j -0.0054855
------------
62            1        0.0031634 /_ -125.3 =  -0.0018266 +j -0.0025828
62            2        0.0029517 /_  121.2 =  -0.0015286 +j  0.002525
62            3         0.051649 /_    5.1 =   0.051445 +j 0.0045862

ELEMENT = "Line.L62"
62            1        0.0031634 /_   54.7 =  0.0018266 +j 0.0025828
62            2        0.0029517 /_  -58.8 =  0.0015286 +j -0.002525
62            3         0.051649 /_ -174.9 =  -0.051445 +j -0.0045862
------------
63            1        0.0027292 /_ -125.3 =  -0.0015759 +j -0.0022283
63            2        0.0025465 /_  121.2 =  -0.0013188 +j 0.0021785
63            3          0.04456 /_    5.1 =   0.044384 +j 0.0039567

ELEMENT = "Line.L63"
63            1        0.0027292 /_   54.7 =  0.0015759 +j 0.0022283
63            2        0.0025465 /_  -58.8 =  0.0013188 +j -0.0021785
63            3          0.04456 /_ -174.9 =  -0.044384 +j -0.0039567
------------
64            1        0.0018608 /_ -125.3 =  -0.0010745 +j -0.0015193
64            2        0.0017363 /_  121.2 =  -0.00089917 +j 0.0014853
64            3         0.030382 /_    5.1 =   0.030262 +j 0.0026977

ELEMENT = "Line.L64"
64            1        0.0018608 /_   54.7 =  0.0010745 +j 0.0015193
64            2        0.0017363 /_  -58.8 =  0.00089917 +j -0.0014853
64            3         0.030382 /_ -174.9 =  -0.030262 +j -0.0026977
------------
65            1       0.00080636 /_ -125.3 =  -0.00046559 +j -0.00065836
65            2       0.00075239 /_  121.2 =  -0.00038964 +j 0.00064363
65            3         0.013165 /_    5.1 =   0.013113 +j  0.001169

ELEMENT = "Line.L65"
65            1       0.00080636 /_   54.7 =  0.00046559 +j 0.00065836
65            2       0.00075239 /_  -58.8 =  0.00038964 +j -0.00064363
65            3         0.013165 /_ -174.9 =  -0.013113 +j -0.001169
------------
66            1      1.0168E-012 /_  116.6 =  -4.5475E-013 +j 9.0949E-013
66            2       1.875E-012 /_ -104.0 =  -4.5475E-013 +j -1.819E-012
66            3                0 /_    0.0 =          0 +j         0

ELEMENT = "Line.L66"
67            1      1.4597E-005 /_    7.9 =  1.4459E-005 +j 2.0079E-006
------------
68            1      1.1882E-005 /_ -172.1 =  -1.1769E-005 +j -1.6343E-006

ELEMENT = "Line.L67"
67            1        0.0046937 /_    5.5 =  0.0046721 +j 0.00045018
67            2        0.0036412 /_    4.6 =  0.0036295 +j 0.00029169
67            3         0.023472 /_ -174.6 =  -0.023369 +j -0.0021936
------------
72            1        0.0044924 /_ -174.5 =  -0.0044717 +j -0.00043072
72            2        0.0033365 /_ -175.4 =  -0.0033258 +j -0.000266
72            3         0.022463 /_    5.4 =   0.022365 +j 0.0020998

ELEMENT = "Line.L68"
67            1        0.0029784 /_    5.6 =  0.0029643 +j 0.00028909
67            2        0.0044526 /_    4.7 =  0.0044374 +j 0.00036852
67            3          0.01823 /_ -174.7 =  -0.018151 +j -0.0016986
------------
97            1        0.0027953 /_ -174.4 =  -0.0027821 +j -0.0002714
97            2        0.0041755 /_ -175.3 =  -0.0041613 +j -0.00034516
97            3         0.017313 /_    5.3 =   0.017237 +j 0.0016133

ELEMENT = "Line.L69"
68            1      1.1882E-005 /_    7.9 =  1.1769E-005 +j 1.6343E-006
------------
69            1      8.1474E-006 /_ -172.1 =  -8.07E-006 +j -1.1207E-006

ELEMENT = "Line.L70"
69            1      8.1474E-006 /_    7.9 =  8.07E-006 +j 1.1207E-006
------------
70            1      3.7342E-006 /_ -172.1 =  -3.6987E-006 +j -5.1364E-007

ELEMENT = "Line.L71"
70            1      3.7342E-006 /_    7.9 =  3.6987E-006 +j 5.1364E-007
------------
71            1      3.1776E-014 /_ -116.6 =  -1.4211E-014 +j -2.8422E-014

ELEMENT = "Line.L72"
72            3        0.0028417 /_ -174.6 =  -0.0028291 +j -0.00026681
------------
73            3        0.0020793 /_    5.4 =  0.0020701 +j 0.00019523

ELEMENT = "Line.L73"
72            1        0.0044924 /_    5.5 =  0.0044717 +j 0.00043072
72            2        0.0033365 /_    4.6 =  0.0033258 +j  0.000266
72            3         0.019622 /_ -174.6 =  -0.019536 +j -0.001833
------------
76            1        0.0043459 /_ -174.5 =  -0.0043259 +j -0.00041657
76            2        0.0031148 /_ -175.4 =  -0.003105 +j -0.00024731
76            3         0.018888 /_    5.4 =   0.018805 +j 0.0017647

ELEMENT = "Line.L74"
73            3        0.0020793 /_ -174.6 =  -0.0020701 +j -0.00019523
------------
74            3        0.0011089 /_    5.4 =   0.001104 +j 0.00010412

ELEMENT = "Line.L75"
74            3        0.0011089 /_ -174.6 =  -0.001104 +j -0.00010412
------------
75            3      4.0674E-012 /_ -116.6 =  -1.819E-012 +j -3.638E-012

ELEMENT = "Line.L76"
76            1        0.0021421 /_    5.5 =  0.0021323 +j 0.00020496
76            2        0.0013118 /_    4.6 =  0.0013076 +j 0.00010418
76            3         0.010073 /_ -174.6 =  -0.010029 +j -0.00094216
------------
77            1        0.0016851 /_ -174.5 =  -0.0016774 +j -0.00016124
77            2        0.0010319 /_ -175.4 =  -0.0010287 +j -8.1958E-005
77            3        0.0086041 /_    5.4 =  0.0085663 +j 0.00080502

ELEMENT = "Line.L77"
76            1        0.0022038 /_    5.5 =  0.0021936 +j 0.00021161
76            2         0.001803 /_    4.6 =  0.0017973 +j 0.00014313
76            3        0.0088153 /_ -174.6 =  -0.0087768 +j -0.00082258
------------
86            1        0.0016912 /_ -174.5 =  -0.0016835 +j -0.00016208
86            2        0.0010272 /_ -175.7 =  -0.0010242 +j -7.7729E-005
86            3        0.0062475 /_    5.4 =  0.0062202 +j 0.00058376

ELEMENT = "Line.L78"
77            1        0.0016851 /_    5.5 =  0.0016774 +j 0.00016124
77            2        0.0010319 /_    4.6 =  0.0010287 +j 8.1958E-005
77            3        0.0086041 /_ -174.6 =  -0.0085663 +j -0.00080502
------------
78            1        0.0015709 /_ -174.5 =  -0.0015637 +j -0.00015031
78            2       0.00096196 /_ -175.4 =  -0.00095893 +j -7.6401E-005
78            3        0.0082369 /_    5.4 =  0.0082007 +j 0.00077074

ELEMENT = "Line.L79"
78            1       0.00025706 /_    5.5 =  0.00025588 +j 2.4595E-005
78            2       0.00015741 /_    4.6 =  0.00015692 +j 1.2502E-005
78            3       0.00082614 /_ -174.6 =  -0.00082253 +j -7.7137E-005
------------
79            1      5.1449E-012 /_  -45.0 =  3.638E-012 +j -3.638E-012
79            2                0 /_    0.0 =          0 +j         0
79            3      2.9104E-011 /_    0.0 =  2.9104E-011 +j         0

ELEMENT = "Line.L80"
78            1        0.0013138 /_    5.5 =  0.0013078 +j 0.00012571
78            2       0.00080455 /_    4.6 =  0.00080201 +j 6.3899E-005
78            3        0.0074107 /_ -174.6 =  -0.0073782 +j -0.0006936
------------
80            1       0.00077117 /_ -174.5 =  -0.00076763 +j -7.3786E-005
80            2       0.00047224 /_ -175.4 =  -0.00047075 +j -3.7506E-005
80            3        0.0056667 /_    5.4 =  0.0056417 +j 0.00053076

ELEMENT = "Line.L81"
80            1       0.00077117 /_    5.5 =  0.00076763 +j 7.3786E-005
80            2       0.00047224 /_    4.6 =  0.00047075 +j 3.7506E-005
80            3        0.0056667 /_ -174.6 =  -0.0056417 +j -0.00053076
------------
81            1       0.00057123 /_ -174.5 =  -0.00056861 +j -5.4656E-005
81            2       0.00034981 /_ -175.4 =  -0.0003487 +j -2.7782E-005
81            3        0.0050241 /_    5.4 =   0.005002 +j 0.00047077

ELEMENT = "Line.L82"
81            1       0.00057123 /_    5.5 =  0.00056861 +j 5.4656E-005
81            2       0.00034981 /_    4.6 =  0.0003487 +j 2.7782E-005
81            3        0.0018359 /_ -174.6 =  -0.0018279 +j -0.00017141
------------
82            1       0.00028562 /_ -174.5 =  -0.00028431 +j -2.7328E-005
82            2        0.0001749 /_ -175.4 =  -0.00017435 +j -1.3891E-005
82            3       0.00091794 /_    5.4 =  0.00091393 +j 8.5707E-005

ELEMENT = "Line.L83"
81            3        0.0031882 /_ -174.6 =  -0.0031741 +j -0.00029935
------------
84            3        0.0013169 /_    5.4 =  0.0013111 +j 0.00012365

ELEMENT = "Line.L84"
82            1       0.00028562 /_    5.5 =  0.00028431 +j 2.7328E-005
82            2        0.0001749 /_    4.6 =  0.00017435 +j 1.3891E-005
82            3       0.00091794 /_ -174.6 =  -0.00091393 +j -8.5707E-005
------------
83            1                0 /_    0.0 =          0 +j         0
83            2      4.0674E-012 /_ -153.4 =  -3.638E-012 +j -1.819E-012
83            3      1.4552E-011 /_  180.0 =  -1.4552E-011 +j         0

ELEMENT = "Line.L85"
84            3        0.0013169 /_ -174.6 =  -0.0013111 +j -0.00012365
------------
85            3       1.819E-012 /_  180.0 =  -1.819E-012 +j         0

ELEMENT = "Line.L86"
86            1        0.0016912 /_    5.5 =  0.0016835 +j 0.00016208
86            2        0.0010272 /_    4.3 =  0.0010242 +j 7.7729E-005
86            3        0.0062475 /_ -174.6 =  -0.0062202 +j -0.00058376
------------
87            1        0.0011771 /_ -174.5 =  -0.0011717 +j -0.00011289
87            2       0.00071237 /_ -175.8 =  -0.00071042 +j -5.2725E-005
87            3        0.0045952 /_    5.4 =  0.0045751 +j 0.00042949

ELEMENT = "Line.L87"
87            1      2.3763E-006 /_    7.9 =  2.3537E-006 +j 3.2687E-007
------------
88            1      2.8422E-014 /_   90.0 =          0 +j 2.8422E-014

ELEMENT = "Line.L88"
87            1        0.0011748 /_    5.5 =  0.0011694 +j 0.00011256
87            2       0.00071237 /_    4.2 =  0.00071042 +j 5.2725E-005
...