test/data/dist/ieee123/ieee123_pv_VLN_Node.Txt

LINE-GROUND and LINE-LINE VOLTAGES BY BUS & NODE

Bus       Node    VLN (kV)   Angle      pu     Base kV    Node-Node   VLL (kV)  Angle      pu

SOURCEBUS 1       66.396 /_    0.1         1   115.000        1-2        115 /_   30.1         1
   -      2       66.396 /_ -119.9         1   115.000        2-3        115 /_  -89.9         1
   -      3       66.396 /_  120.1         1   115.000        3-1        115 /_  150.1         1
150 ..... 1       2.5908 /_  -24.8    1.0787     4.160        1-2     4.4874 /_    5.2    1.0787
   -      2       2.5908 /_ -144.8    1.0787     4.160        2-3     4.4874 /_ -114.8    1.0787
   -      3       2.5908 /_   95.2    1.0787     4.160        3-1     4.4874 /_  125.2    1.0787
1 ....... 1       2.6106 /_  -24.0    1.0869     4.160        1-2     4.5157 /_    5.9    1.0855
   -      2       2.6019 /_ -144.1    1.0833     4.160        2-3     4.5057 /_ -114.0    1.0831
   -      3       2.6034 /_   96.0    1.0839     4.160        3-1     4.5161 /_  126.1    1.0856
2 ....... 2       2.6019 /_ -144.1    1.0833     4.160
3 ....... 3       2.6034 /_   96.0    1.0839     4.160
7 ....... 1       2.6257 /_  -23.4    1.0932     4.160        1-2     4.5374 /_    6.4    1.0907
   -      2       2.6106 /_ -143.5    1.0869     4.160        2-3       4.52 /_ -113.4    1.0865
   -      3       2.6131 /_   96.6     1.088     4.160        3-1     4.5382 /_  126.7    1.0909
4 ....... 3       2.6034 /_   96.0    1.0839     4.160
5 ....... 3       2.6034 /_   96.0    1.0839     4.160
6 ....... 3       2.6034 /_   96.0    1.0839     4.160
8 ....... 1       2.6359 /_  -23.0    1.0975     4.160        1-2      4.552 /_    6.8    1.0942
   -      2       2.6164 /_ -143.2    1.0894     4.160        2-3     4.5297 /_ -113.1    1.0889
   -      3       2.6198 /_   97.0    1.0908     4.160        3-1     4.5532 /_  127.1    1.0945
12 ...... 2       2.6164 /_ -143.2    1.0894     4.160
9 ....... 1       2.6359 /_  -23.0    1.0975     4.160
13 ...... 1         2.65 /_  -22.5    1.1033     4.160        1-2     4.5721 /_    7.2    1.0991
   -      2       2.6245 /_ -142.7    1.0928     4.160        2-3     4.5432 /_ -112.5    1.0921
   -      3        2.629 /_   97.6    1.0946     4.160        3-1      4.574 /_  127.6    1.0995
14 ...... 1       2.6359 /_  -23.0    1.0975     4.160
34 ...... 3        2.629 /_   97.6    1.0946     4.160
18 ...... 1       2.6602 /_  -22.0    1.1076     4.160        1-2     4.5889 /_    7.8    1.1031
   -      2        2.636 /_ -142.1    1.0975     4.160        2-3     4.5688 /_ -111.9    1.0983
   -      3       2.6462 /_   98.2    1.1018     4.160        3-1     4.5989 /_  128.2    1.1055
11 ...... 1       2.6359 /_  -23.0    1.0975     4.160
10 ...... 1       2.6359 /_  -23.0    1.0975     4.160
15 ...... 3        2.629 /_   97.6    1.0946     4.160
16 ...... 3        2.629 /_   97.6    1.0946     4.160
17 ...... 3        2.629 /_   97.6    1.0946     4.160
19 ...... 1       2.6602 /_  -22.0    1.1076     4.160
21 ...... 1       2.6611 /_  -21.9     1.108     4.160        1-2     4.5904 /_    7.9    1.1035
   -      2       2.6369 /_ -142.0    1.0979     4.160        2-3     4.5709 /_ -111.8    1.0988
   -      3       2.6477 /_   98.2    1.1024     4.160        3-1      4.601 /_  128.2     1.106
20 ...... 1       2.6602 /_  -22.0    1.1076     4.160
22 ...... 2       2.6369 /_ -142.0    1.0979     4.160
23 ...... 1       2.6618 /_  -21.9    1.1083     4.160        1-2     4.5916 /_    7.9    1.1037
   -      2       2.6377 /_ -142.0    1.0982     4.160        2-3     4.5727 /_ -111.8    1.0992
   -      3       2.6489 /_   98.3    1.1029     4.160        3-1     4.6028 /_  128.3    1.1064
24 ...... 3       2.6489 /_   98.3    1.1029     4.160
25 ...... 1       2.6626 /_  -21.9    1.1086     4.160        1-2     4.5929 /_    7.9    1.1041
   -      2       2.6386 /_ -141.9    1.0986     4.160        2-3     4.5747 /_ -111.8    1.0997
   -      3       2.6502 /_   98.3    1.1034     4.160        3-1     4.6047 /_  128.3    1.1069
26 ...... 1       2.6626 /_  -21.9    1.1086     4.160
   -      3       2.6502 /_   98.3    1.1034     4.160        3-1     4.6047 /_  128.3    1.1069
28 ...... 1       2.6631 /_  -21.8    1.1088     4.160        1-2     4.5938 /_    8.0    1.1043
   -      2       2.6393 /_ -141.9    1.0989     4.160        2-3     4.5761 /_ -111.7       1.1
   -      3       2.6512 /_   98.3    1.1038     4.160        3-1     4.6061 /_  128.3    1.1072
27 ...... 1       2.6626 /_  -21.9    1.1086     4.160
   -      3       2.6502 /_   98.3    1.1034     4.160        3-1     4.6047 /_  128.3    1.1069
31 ...... 3       2.6502 /_   98.3    1.1034     4.160
33 ...... 1       2.6626 /_  -21.9    1.1086     4.160
29 ...... 1       2.6631 /_  -21.8    1.1088     4.160        1-2     4.5938 /_    8.0    1.1043
   -      2       2.6393 /_ -141.9    1.0989     4.160        2-3     4.5761 /_ -111.7       1.1
   -      3       2.6512 /_   98.3    1.1038     4.160        3-1     4.6061 /_  128.3    1.1072
30 ...... 1       2.6631 /_  -21.8    1.1088     4.160        1-2     4.5938 /_    8.0    1.1043
   -      2       2.6393 /_ -141.9    1.0989     4.160        2-3     4.5761 /_ -111.7       1.1
   -      3       2.6512 /_   98.3    1.1038     4.160        3-1     4.6061 /_  128.3    1.1072
250 ..... 1       2.6631 /_  -21.8    1.1088     4.160        1-2     4.5938 /_    8.0    1.1043
   -      2       2.6393 /_ -141.9    1.0989     4.160        2-3     4.5761 /_ -111.7       1.1
   -      3       2.6512 /_   98.3    1.1038     4.160        3-1     4.6061 /_  128.3    1.1072
32 ...... 3       2.6502 /_   98.3    1.1034     4.160
35 ...... 1       2.6632 /_  -21.9    1.1088     4.160        1-2     4.5947 /_    7.9    1.1045
   -      2       2.6393 /_ -142.0    1.0989     4.160        2-3      4.573 /_ -111.8    1.0993
   -      3        2.648 /_   98.3    1.1025     4.160        3-1      4.603 /_  128.3    1.1065
36 ...... 1       2.6632 /_  -21.9    1.1088     4.160        1-2     4.5947 /_    7.9    1.1045
   -      2       2.6393 /_ -142.0    1.0989     4.160
40 ...... 1       2.6656 /_  -21.8    1.1098     4.160        1-2     4.5981 /_    8.0    1.1053
   -      2       2.6407 /_ -141.9    1.0995     4.160        2-3     4.5753 /_ -111.7    1.0998
   -      3       2.6496 /_   98.4    1.1032     4.160        3-1     4.6065 /_  128.4    1.1073
37 ...... 1       2.6632 /_  -21.9    1.1088     4.160
38 ...... 2       2.6393 /_ -142.0    1.0989     4.160
39 ...... 2       2.6393 /_ -142.0    1.0989     4.160
41 ...... 3       2.6496 /_   98.4    1.1032     4.160
42 ...... 1       2.6679 /_  -21.7    1.1108     4.160        1-2     4.6015 /_    8.1    1.1061
   -      2       2.6421 /_ -141.8    1.1001     4.160        2-3     4.5777 /_ -111.6    1.1004
   -      3       2.6512 /_   98.5    1.1039     4.160        3-1     4.6101 /_  128.5    1.1082
43 ...... 2       2.6421 /_ -141.8    1.1001     4.160
44 ...... 1       2.6698 /_  -21.6    1.1116     4.160        1-2     4.6043 /_    8.1    1.1068
   -      2       2.6432 /_ -141.8    1.1005     4.160        2-3     4.5796 /_ -111.6    1.1009
   -      3       2.6525 /_   98.5    1.1044     4.160        3-1     4.6129 /_  128.6    1.1089
45 ...... 1       2.6698 /_  -21.6    1.1116     4.160
47 ...... 1       2.6722 /_  -21.6    1.1126     4.160        1-2     4.6077 /_    8.2    1.1076
   -      2       2.6447 /_ -141.7    1.1011     4.160        2-3      4.582 /_ -111.5    1.1014
   -      3       2.6541 /_   98.6    1.1051     4.160        3-1     4.6165 /_  128.6    1.1097
46 ...... 1       2.6698 /_  -21.6    1.1116     4.160
48 ...... 1       2.6734 /_  -21.5    1.1131     4.160        1-2       4.61 /_    8.3    1.1082
   -      2        2.646 /_ -141.6    1.1017     4.160        2-3     4.5837 /_ -111.4    1.1019
   -      3       2.6549 /_   98.7    1.1054     4.160        3-1     4.6182 /_  128.7    1.1101
49 ...... 1       2.6722 /_  -21.6    1.1126     4.160        1-2     4.6077 /_    8.2    1.1076
   -      2       2.6447 /_ -141.7    1.1011     4.160        2-3      4.582 /_ -111.5    1.1014
   -      3       2.6541 /_   98.6    1.1051     4.160        3-1     4.6165 /_  128.6    1.1097
50 ...... 1       2.6722 /_  -21.6    1.1126     4.160        1-2     4.6077 /_    8.2    1.1076
   -      2       2.6447 /_ -141.7    1.1011     4.160        2-3      4.582 /_ -111.5    1.1014
   -      3       2.6541 /_   98.6    1.1051     4.160        3-1     4.6165 /_  128.6    1.1097
51 ...... 1       2.6722 /_  -21.6    1.1126     4.160        1-2     4.6077 /_    8.2    1.1076
   -      2       2.6447 /_ -141.7    1.1011     4.160        2-3      4.582 /_ -111.5    1.1014
   -      3       2.6541 /_   98.6    1.1051     4.160        3-1     4.6165 /_  128.6    1.1097
151 ..... 1       2.6722 /_  -21.6    1.1126     4.160        1-2     4.6077 /_    8.2    1.1076
   -      2       2.6447 /_ -141.7    1.1011     4.160        2-3      4.582 /_ -111.5    1.1014
   -      3       2.6541 /_   98.6    1.1051     4.160        3-1     4.6165 /_  128.6    1.1097
52 ...... 1       2.6607 /_  -22.1    1.1078     4.160        1-2     4.5874 /_    7.6    1.1027
   -      2       2.6307 /_ -142.3    1.0953     4.160        2-3     4.5534 /_ -112.2    1.0946
   -      3        2.636 /_   98.0    1.0975     4.160        3-1     4.5898 /_  128.1    1.1033
53 ...... 1       2.6661 /_  -21.9      1.11     4.160        1-2     4.5951 /_    7.7    1.1046
   -      2       2.6338 /_ -142.2    1.0966     4.160        2-3     4.5586 /_ -112.0    1.0958
   -      3       2.6395 /_   98.2     1.099     4.160        3-1     4.5978 /_  128.3    1.1052
54 ...... 1       2.6695 /_  -21.8    1.1115     4.160        1-2     4.5999 /_    7.9    1.1057
   -      2       2.6357 /_ -142.1    1.0974     4.160        2-3     4.5619 /_ -111.8    1.0966
   -      3       2.6417 /_   98.3    1.0999     4.160        3-1     4.6028 /_  128.4    1.1064
55 ...... 1       2.6695 /_  -21.8    1.1115     4.160        1-2     4.5999 /_    7.9    1.1057
   -      2       2.6357 /_ -142.1    1.0974     4.160        2-3     4.5619 /_ -111.8    1.0966
   -      3       2.6417 /_   98.3    1.0999     4.160        3-1     4.6028 /_  128.4    1.1064
57 ...... 1       2.6757 /_  -21.5    1.1141     4.160        1-2     4.6138 /_    8.2    1.1091
   -      2       2.6452 /_ -141.7    1.1014     4.160        2-3     4.5756 /_ -111.5    1.0999
   -      3       2.6474 /_   98.6    1.1023     4.160        3-1     4.6122 /_  128.8    1.1087
56 ...... 1       2.6695 /_  -21.8    1.1115     4.160        1-2     4.5999 /_    7.9    1.1057
   -      2       2.6357 /_ -142.1    1.0974     4.160        2-3     4.5619 /_ -111.8    1.0966
   -      3       2.6417 /_   98.3    1.0999     4.160        3-1     4.6028 /_  128.4    1.1064
58 ...... 2       2.6452 /_ -141.7    1.1014     4.160
60 ...... 1       2.6895 /_  -20.7    1.1198     4.160        1-2     4.6442 /_    9.0    1.1164
   -      2       2.6658 /_ -141.0    1.1099     4.160        2-3     4.6055 /_ -110.9    1.1071
   -      3       2.6597 /_   99.3    1.1074     4.160        3-1     4.6328 /_  129.5    1.1137
59 ...... 2       2.6452 /_ -141.7    1.1014     4.160
61 ...... 1        2.692 /_  -20.6    1.1208     4.160        1-2     4.6473 /_    9.1    1.1171
   -      2       2.6671 /_ -140.9    1.1105     4.160        2-3     4.6085 /_ -110.8    1.1078
   -      3       2.6619 /_   99.4    1.1083     4.160        3-1     4.6371 /_  129.6    1.1147
62 ...... 1       2.6896 /_  -20.7    1.1198     4.160        1-2     4.6442 /_    9.0    1.1164
   -      2       2.6658 /_ -141.0    1.1099     4.160        2-3     4.6055 /_ -110.9    1.1071
   -      3       2.6597 /_   99.3    1.1074     4.160        3-1     4.6328 /_  129.5    1.1137
63 ...... 1       2.6896 /_  -20.7    1.1198     4.160        1-2     4.6442 /_    9.0    1.1164
   -      2       2.6658 /_ -141.0    1.1099     4.160        2-3     4.6055 /_ -110.9    1.1071
   -      3       2.6597 /_   99.3    1.1074     4.160        3-1     4.6328 /_  129.5    1.1137
64 ...... 1       2.6896 /_  -20.7    1.1198     4.160        1-2     4.6442 /_    9.0    1.1164
   -      2       2.6658 /_ -141.0    1.1099     4.160        2-3     4.6055 /_ -110.9    1.1071
   -      3       2.6597 /_   99.3    1.1074     4.160        3-1     4.6328 /_  129.5    1.1137
65 ...... 1       2.6896 /_  -20.7    1.1198     4.160        1-2     4.6442 /_    9.0    1.1164
   -      2       2.6658 /_ -141.0    1.1099     4.160        2-3     4.6055 /_ -110.9    1.1071
   -      3       2.6597 /_   99.3    1.1074     4.160        3-1     4.6328 /_  129.5    1.1137
66 ...... 1       2.6896 /_  -20.7    1.1198     4.160        1-2     4.6442 /_    9.0    1.1164
   -      2       2.6658 /_ -141.0    1.1099     4.160        2-3     4.6055 /_ -110.9    1.1071
   -      3       2.6597 /_   99.3    1.1074     4.160        3-1     4.6328 /_  129.5    1.1137
67 ...... 1       2.6936 /_  -20.4    1.1215     4.160        1-2     4.6533 /_    9.3    1.1186
   -      2       2.6726 /_ -140.7    1.1128     4.160        2-3     4.6187 /_ -110.6    1.1103
   -      3       2.6673 /_   99.6    1.1105     4.160        3-1     4.6424 /_  129.7     1.116
68 ...... 1       2.6936 /_  -20.4    1.1215     4.160
72 ...... 1       2.6961 /_  -20.3    1.1226     4.160        1-2     4.6589 /_    9.5    1.1199
   -      2       2.6764 /_ -140.6    1.1144     4.160        2-3     4.6242 /_ -110.5    1.1116
   -      3       2.6696 /_   99.7    1.1115     4.160        3-1     4.6463 /_  129.9    1.1169
97 ...... 1       2.6952 /_  -20.3    1.1222     4.160        1-2     4.6568 /_    9.4    1.1194
   -      2        2.675 /_ -140.6    1.1137     4.160        2-3     4.6221 /_ -110.5    1.1111
   -      3       2.6687 /_   99.6    1.1111     4.160        3-1     4.6448 /_  129.8    1.1165
69 ...... 1       2.6936 /_  -20.4    1.1215     4.160
70 ...... 1       2.6936 /_  -20.4    1.1215     4.160
71 ...... 1       2.6936 /_  -20.4    1.1215     4.160
73 ...... 3       2.6696 /_   99.7    1.1115     4.160
76 ...... 1        2.698 /_  -20.2    1.1233     4.160        1-2      4.663 /_    9.6    1.1209
   -      2       2.6792 /_ -140.5    1.1155     4.160        2-3     4.6282 /_ -110.4    1.1126
   -      3       2.6712 /_   99.8    1.1122     4.160        3-1     4.6491 /_  130.0    1.1176
74 ...... 3       2.6696 /_   99.7    1.1115     4.160
75 ...... 3       2.6696 /_   99.7    1.1115     4.160
77 ...... 1        2.699 /_  -20.1    1.1237     4.160        1-2     4.6652 /_    9.6    1.1214
   -      2       2.6808 /_ -140.4    1.1162     4.160        2-3     4.6313 /_ -110.3    1.1133
   -      3        2.673 /_   99.8    1.1129     4.160        3-1     4.6514 /_  130.0    1.1181
86 ...... 1       2.7024 /_  -20.0    1.1252     4.160        1-2     4.6727 /_    9.8    1.1232
   -      2       2.6857 /_ -140.2    1.1182     4.160        2-3     4.6376 /_ -110.2    1.1148
   -      3       2.6751 /_  100.0    1.1138     4.160        3-1     4.6556 /_  130.2    1.1191
78 ...... 1       2.6992 /_  -20.1    1.1238     4.160        1-2     4.6657 /_    9.6    1.1216
   -      2       2.6812 /_ -140.4    1.1163     4.160        2-3     4.6321 /_ -110.3    1.1135
   -      3       2.6735 /_   99.8    1.1131     4.160        3-1     4.6519 /_  130.0    1.1182
79 ...... 1       2.6997 /_  -20.1    1.1241     4.160        1-2     4.6669 /_    9.7    1.1219
   -      2       2.6821 /_ -140.3    1.1167     4.160        2-3     4.6338 /_ -110.3    1.1139
   -      3       2.6745 /_   99.9    1.1135     4.160        3-1     4.6532 /_  130.1    1.1186
80 ...... 1       2.6992 /_  -20.1    1.1238     4.160        1-2     4.6657 /_    9.6    1.1216
   -      2       2.6812 /_ -140.4    1.1163     4.160        2-3     4.6321 /_ -110.3    1.1135
   -      3       2.6735 /_   99.8    1.1131     4.160        3-1     4.6519 /_  130.0    1.1182
81 ...... 1       2.6992 /_  -20.1    1.1238     4.160        1-2     4.6657 /_    9.6    1.1216
   -      2       2.6812 /_ -140.4    1.1163     4.160        2-3     4.6321 /_ -110.3    1.1135
   -      3       2.6735 /_   99.8    1.1131     4.160        3-1     4.6519 /_  130.0    1.1182
82 ...... 1       2.6992 /_  -20.1    1.1238     4.160        1-2     4.6657 /_    9.6    1.1216
   -      2       2.6812 /_ -140.4    1.1163     4.160        2-3     4.6321 /_ -110.3    1.1135
   -      3       2.6735 /_   99.8    1.1131     4.160        3-1     4.6519 /_  130.0    1.1182
84 ...... 3       2.6735 /_   99.8    1.1131     4.160
83 ...... 1       2.6992 /_  -20.1    1.1238     4.160        1-2     4.6657 /_    9.6    1.1216
   -      2       2.6812 /_ -140.4    1.1163     4.160        2-3     4.6321 /_ -110.3    1.1135
   -      3       2.6735 /_   99.8    1.1131     4.160        3-1     4.6519 /_  130.0    1.1182
85 ...... 3       2.6735 /_   99.8    1.1131     4.160
87 ...... 1       2.7045 /_  -19.8     1.126     4.160        1-2     4.6774 /_   10.0    1.1244
   -      2       2.6892 /_ -140.1    1.1197     4.160        2-3     4.6444 /_ -110.1    1.1164
   -      3       2.6791 /_  100.1    1.1154     4.160        3-1     4.6606 /_  130.3    1.1203
88 ...... 1       2.7045 /_  -19.8     1.126     4.160
89 ...... 1       2.7058 /_  -19.7    1.1266     4.160        1-2     4.6803 /_   10.0    1.1251
   -      2       2.6914 /_ -140.0    1.1206     4.160        2-3     4.6486 /_ -110.0    1.1174
   -      3       2.6815 /_  100.2    1.1164     4.160        3-1     4.6637 /_  130.4    1.1211
90 ...... 2       2.6914 /_ -140.0    1.1206     4.160
91 ...... 1       2.7068 /_  -19.7     1.127     4.160        1-2     4.6827 /_   10.1    1.1256
   -      2       2.6931 /_ -139.9    1.1213     4.160        2-3      4.652 /_ -109.9    1.1183
   -      3       2.6834 /_  100.3    1.1173     4.160        3-1     4.6662 /_  130.4    1.1217
92 ...... 3       2.6834 /_  100.3    1.1173     4.160
93 ...... 1       2.7079 /_  -19.6    1.1274     4.160        1-2      4.685 /_   10.2    1.1262
   -      2       2.6949 /_ -139.8     1.122     4.160        2-3     4.6554 /_ -109.8    1.1191
   -      3       2.6854 /_  100.3    1.1181     4.160        3-1     4.6687 /_  130.5    1.1223
94 ...... 1       2.7079 /_  -19.6    1.1274     4.160
95 ...... 1       2.7093 /_  -19.5     1.128     4.160        1-2     4.6882 /_   10.3     1.127
   -      2       2.6973 /_ -139.8     1.123     4.160        2-3       4.66 /_ -109.7    1.1202
   -      3       2.6881 /_  100.4    1.1192     4.160        3-1     4.6721 /_  130.6    1.1231
96 ...... 2       2.6973 /_ -139.8     1.123     4.160
98 ...... 1        2.696 /_  -20.3    1.1225     4.160        1-2     4.6587 /_    9.4    1.1199
   -      2       2.6763 /_ -140.6    1.1143     4.160        2-3      4.624 /_ -110.5    1.1115
   -      3       2.6695 /_   99.7    1.1115     4.160        3-1     4.6462 /_  129.9    1.1169
99 ...... 1       2.6978 /_  -20.2    1.1233     4.160        1-2     4.6625 /_    9.5    1.1208
   -      2       2.6789 /_ -140.5    1.1154     4.160        2-3     4.6277 /_ -110.4    1.1124
   -      3        2.671 /_   99.8    1.1121     4.160        3-1     4.6488 /_  129.9    1.1175
100 ..... 1       2.6988 /_  -20.2    1.1237     4.160        1-2     4.6647 /_    9.6    1.1213
   -      2       2.6803 /_ -140.4     1.116     4.160        2-3     4.6298 /_ -110.4    1.1129
   -      3       2.6719 /_   99.8    1.1125     4.160        3-1     4.6502 /_  130.0    1.1178
450 ..... 1       2.6988 /_  -20.2    1.1237     4.160        1-2     4.6647 /_    9.6    1.1213
   -      2       2.6803 /_ -140.4     1.116     4.160        2-3     4.6298 /_ -110.4    1.1129
   -      3       2.6719 /_   99.8    1.1125     4.160        3-1     4.6502 /_  130.0    1.1178
101 ..... 1        2.696 /_  -20.3    1.1225     4.160        1-2     4.6585 /_    9.4    1.1198
   -      2       2.6761 /_ -140.6    1.1142     4.160        2-3     4.6238 /_ -110.5    1.1115
   -      3       2.6694 /_   99.7    1.1114     4.160        3-1      4.646 /_  129.8    1.1168
102 ..... 3       2.6694 /_   99.7    1.1114     4.160
105 ..... 1       2.6968 /_  -20.3    1.1229     4.160        1-2     4.6604 /_    9.5    1.1203
   -      2       2.6774 /_ -140.5    1.1148     4.160        2-3     4.6257 /_ -110.4    1.1119
   -      3       2.6702 /_   99.7    1.1118     4.160        3-1     4.6474 /_  129.9    1.1172
103 ..... 3       2.6694 /_   99.7    1.1114     4.160
104 ..... 3       2.6694 /_   99.7    1.1114     4.160
106 ..... 2       2.6774 /_ -140.5    1.1148     4.160
108 ..... 1       2.6979 /_  -20.2    1.1233     4.160        1-2     4.6627 /_    9.5    1.1208
   -      2        2.679 /_ -140.5    1.1154     4.160        2-3     4.6279 /_ -110.4    1.1125
   -      3       2.6711 /_   99.8    1.1121     4.160        3-1     4.6489 /_  129.9    1.1175
107 ..... 2       2.6774 /_ -140.5    1.1148     4.160
109 ..... 1       2.6979 /_  -20.2    1.1233     4.160
300 ..... 1       2.6979 /_  -20.2    1.1233     4.160        1-2     4.6627 /_    9.5    1.1208
   -      2        2.679 /_ -140.5    1.1154     4.160        2-3     4.6279 /_ -110.4    1.1125
   -      3       2.6711 /_   99.8    1.1121     4.160        3-1     4.6489 /_  129.9    1.1175
110 ..... 1       2.6979 /_  -20.2    1.1233     4.160
111 ..... 1       2.6979 /_  -20.2    1.1233     4.160
112 ..... 1       2.6979 /_  -20.2    1.1233     4.160
113 ..... 1       2.6979 /_  -20.2    1.1233     4.160
114 ..... 1       2.6979 /_  -20.2    1.1233     4.160
